ELEMENTS H C O N Cl He Ne Ar END
SPECIES
	N2
	Ar
	C4H9J(16)
	O2(2)
	C2H5J(18)
	nC7H18(1)
	C6H13J(12)
	HJ(14)
	C7H15J(3)
	C7H15J(5)
	C7H15J(7)
	HO2J(4)
	C7H15J(6)
	C5H11J(17)
	C3H7J(15)
	CH3J(13)
END
THERMO
   300.000  1000.000  5000.000

C4H9J(16)               C   4H   9Cl  00   00   300.000  5000.000 1382.000     1
 1.22820703E+01 1.89411637E-02-6.19148621E-06 9.37626198E-10-5.36013522E-14    2
 3.11259621E+03-3.96003782E+01 2.48139656E-01 4.39949594E-02-2.50683069E-05    3
 6.94417771E-09-7.09234755E-13 7.60997197E+03 2.61358411E+01                   4

O2(2)                   C   0H   0Cl  0O   20   300.000  5000.000 1480.000     1
 3.61249261E+00 9.20628166E-04-3.46613995E-07 5.65645709E-11-3.37952689E-15    2
-1.24324079E+03 3.56282989E+00 3.21873714E+00 8.08363652E-04 9.86282059E-07    3
-1.09861588E-09 2.85329870E-13-1.00227301E+03 6.04551744E+00                   4

C2H5J(18)               C   2H   5Cl  00   00   300.000  5000.000 1402.000     1
 4.20963771E+00 1.22478244E-02-3.72122400E-06 5.27308461E-10-2.86624894E-14    2
 1.21391081E+04 1.64792598E+00 4.59769392E-01 2.16654285E-02-1.31486644E-05    3
 4.95468950E-09-8.37206410E-13 1.34002896E+04 2.15940192E+01                   4

nC7H18(1)               C   7H  16Cl  00   00   300.000  5000.000 1383.000     1
 2.27334728E+01 3.36872609E-02-1.11183907E-05 1.69685436E-09-9.75326759E-14    2
-3.44608981E+04-9.52178617E+01-1.15976410E+00 8.47923458E-02-5.14351556E-05    3
 1.55861053E-08-1.85018393E-12-2.56708412E+04 3.48127825E+01                   4

C6H13J(12)              C   6H  13Cl  00   00   300.000  5000.000 1382.000     1
 1.89431116E+01 2.74092239E-02-9.03414065E-06 1.37749380E-09-7.91272946E-14    2
-5.21960185E+03-7.26115977E+01-1.69804282E-01 6.81313063E-02-4.09705003E-05    3
 1.22804169E-08-1.43547342E-12 1.82983479E+03 3.14635878E+01                   4

HJ(14)                  C   0H   1Cl  00   00   300.000  5000.000 1000.000     1
-1.29401541E+00 0.00000000E+00 0.00000000E+00 0.00000000E+00 0.00000000E+00    2
 2.50461027E+04 8.68631591E+00-1.29401541E+00 0.00000000E+00 0.00000000E+00    3
 0.00000000E+00 0.00000000E+00 2.50461027E+04 8.68631591E+00                   4

C7H15J(3)               C   7H  15Cl  00   00   300.000  5000.000 1383.000     1
 2.22736322E+01 3.16432539E-02-1.04554679E-05 1.59742760E-09-9.18902658E-14    2
-9.38570088E+03-8.91021093E+01-3.78776250E-01 8.01994798E-02-4.89215971E-05    3
 1.49485365E-08-1.79859275E-12-1.06023380E+03 3.41425593E+01                   4

C7H15J(5)               C   7H  15Cl  00   00   300.000  5000.000 1373.000     1
 2.02952379E+01 3.38996010E-02-1.13495048E-05 1.74606400E-09-1.00829421E-13    2
-1.01982784E+04-7.78046475E+01 1.72264832E+00 6.61734977E-02-2.75563967E-05    3
 2.33636652E-09 8.23484865E-13-2.56210505E+03 2.60112371E+01                   4

C7H15J(7)               C   7H  15Cl  00   00   300.000  5000.000 1373.000     1
 2.02952379E+01 3.38996010E-02-1.13495048E-05 1.74606400E-09-1.00829421E-13    2
-1.01982784E+04-7.83079188E+01 1.72264832E+00 6.61734977E-02-2.75563967E-05    3
 2.33636652E-09 8.23484865E-13-2.56210505E+03 2.55079658E+01                   4

HO2J(4)                 C   0H   1Cl  0O   20   300.000  5000.000 1506.000     1
 3.66884478E+00 3.15305645E-03-1.06239643E-06 1.61467632E-10-9.20904059E-15    2
-1.17198484E+03 5.44556792E+00 3.75687737E+00 7.22079111E-04 3.64224687E-06    3
-2.96503547E-09 6.87098038E-13-9.62444183E+02 5.79156053E+00                   4

C7H15J(6)               C   7H  15Cl  00   00   300.000  5000.000 1376.000     1
 2.04259926E+01 3.37957972E-02-1.12423951E-05 1.72178975E-09-9.91320396E-14    2
-1.01758638E+04-7.79265532E+01 1.17575169E+00 6.96479596E-02-3.29854103E-05    3
 5.71142115E-09 9.36251127E-14-2.51183702E+03 2.88075206E+01                   4

C5H11J(17)              C   5H  11Cl  00   00   300.000  5000.000 1382.000     1
 1.56125909E+01 2.31751938E-02-7.61281343E-06 1.15756000E-09-6.63643234E-14    2
-1.05350282E+03-5.61059880E+01 3.91676869E-02 5.60631329E-02-3.30194036E-05    3
 9.61229730E-09-1.07235409E-12 4.71990338E+03 2.87997145E+01                   4

C3H7J(15)               C   3H   7Cl  00   00   300.000  5000.000 1382.000     1
 8.95154967E+00 1.47071337E-02-4.77015899E-06 7.17692396E-10-4.08383811E-14    2
 7.27869523E+03-2.30947685E+01 4.57111624E-01 3.19267859E-02-1.71172101E-05    3
 4.27605812E-09-3.46115423E-13 1.05000406E+04 2.34719678E+01                   4

CH3J(13)                C   1H   3Cl  00   00   300.000  5000.000 1403.000     1
 4.19498820E+00 3.52776858E-03-9.96658185E-07 1.37342733E-10-7.36938799E-15    2
 1.59675944E+04-1.89303225E+00 2.93067311E+00 6.78450304E-03-4.29254421E-06    3
 1.67984693E-09-2.85369422E-13 1.63782823E+04 4.79260818E+00                   4

END
REACTIONS	KCAL/MOLE
 O2(2)+HJ(14)=HO2J(4) 8.790E10	1.000	0.450
 nC7H18(1)+C7H15J(5)=C7H15J(6)+nC7H18(1) 60.800	3.190	10.310
 nC7H18(1)+C7H15J(3)=C7H15J(7)+nC7H18(1) 3.080E3	2.660	10.100
 nC7H18(1)+C7H15J(3)=C7H15J(6)+nC7H18(1) 6.160E3	2.660	10.100
 nC7H18(1)+C7H15J(3)=C7H15J(5)+nC7H18(1) 6.160E3	2.660	10.100
 nC7H18(1)+C7H15J(7)=C7H15J(6)+nC7H18(1) 60.800	3.190	10.310
 nC7H18(1)+C7H15J(7)=nC7H18(1)+C7H15J(5) 60.800	3.190	10.310
 C7H15J(6)+HO2J(4)=nC7H18(1)+O2(2) 3.000E11	0.000	0.000
 C7H15J(3)+HO2J(4)=nC7H18(1)+O2(2) 3.000E11	0.000	0.000
 C7H15J(5)+HO2J(4)=nC7H18(1)+O2(2) 3.000E11	0.000	0.000
 C7H15J(7)+HO2J(4)=nC7H18(1)+O2(2) 3.000E11	0.000	0.000
 C7H15J(7)=C7H15J(6) 2.200E9	1.010	36.400
 C7H15J(7)=C7H15J(5) 1.352E10	0.880	38.000
 C7H15J(3)=C7H15J(7) 6.440E9	0.130	20.700
 C7H15J(3)=C7H15J(6) 3.876E10	0.890	35.800
 C7H15J(3)=C7H15J(5) 1.712E12	-1.050	11.760
 C7H15J(5)=C7H15J(6) 1.288E10	0.130	20.700
 nC7H18(1)(+m)=>C7H15J(5)+HJ(14)(+m)	1.0E0 0.0 0.0
TCHEB / 300.0 3000.0 /	PCHEB / 0.1 100.0 /
TCHEB/ 300 2500/ PCHEB/1 100/
CHEB/ 7 3 1.0216E+01 -1.1083E+00 -1.9807E-01 7.8325E-01/
CHEB/ 1.1609E+00 1.1762E-01 -9.5707E-02 1.0928E-01 1.1551E-01/
CHEB/ -8.0290E-02 -1.0978E-01 3.7074E-04 -1.4830E-02 -6.0589E-02/
CHEB/ -2.8056E-02 6.9203E-03 -9.7259E-03 -1.3556E-02 7.6648E-03/
CHEB/ 6.6865E-03 -8.8244E-04/


END
